*
* GENERIC MODELS
*
.model qnpn npn
.model qpnp pnp

*ZETEX  BC548BP Spice model     Last revision  4/90
*
.MODEL BC548BP NPN IS =1.8E-14 ISE=5.0E-14 NF =.9955 NE =1.46 BF =400 BR =35.5
+IKF=.14 IKR=.03 ISC=1.72E-13 NC =1.27 NR =1.005 RB =.56 RE =.6 RC =.25 VAF=80
+VAR=12.5 CJE=13E-12 TF =.64E-9 CJC=4E-12 TR =50.72E-9 VJC=.54 MJC=.33
*
*                          (C)  2002 ZETEX PLC
*
*   The copyright in these models  and  the designs embodied belong
*   to Zetex PLC ("Zetex").  They  are  supplied  free of charge by
*   Zetex for the purpose of research and design and may be used or
*   copied intact  (including this notice)  for  that purpose only.
*   All other rights are reserved. The models are believed accurate
*   but  no condition  or warranty  as to their  merchantability or
*   fitness for purpose is given and no liability in respect of any
*   use is accepted by Zetex PLC, its distributors or agents.
*
*   Zetex PLC, Fields New Road, Chadderton, Oldham, Lancashire.  
*              OL9 8NP   UK

