Version 4
SHEET 1 880 680
WIRE -528 -352 -576 -352
WIRE -496 -352 -528 -352
WIRE -352 -352 -416 -352
WIRE -304 -352 -352 -352
WIRE -192 -352 -224 -352
WIRE -160 -352 -192 -352
WIRE -576 -304 -576 -352
WIRE -352 -304 -352 -352
WIRE -160 -304 -160 -352
WIRE -576 -192 -576 -224
WIRE -448 -192 -576 -192
WIRE -352 -192 -352 -224
WIRE -352 -192 -448 -192
WIRE -160 -192 -160 -224
WIRE -160 -192 -352 -192
WIRE -576 -176 -576 -192
FLAG -576 -176 0
FLAG -528 -352 A
FLAG -352 -352 B
FLAG -192 -352 C
FLAG -448 -192 Ground
SYMBOL voltage -576 -320 R0
SYMATTR InstName V1
SYMATTR Value 15
SYMBOL res -400 -368 R90
WINDOW 0 0 56 VBottom 2
WINDOW 3 32 56 VTop 2
SYMATTR InstName R1
SYMATTR Value 10
SYMBOL res -208 -368 R90
WINDOW 0 0 56 VBottom 2
WINDOW 3 32 56 VTop 2
SYMATTR InstName R2
SYMATTR Value 100
SYMBOL res -336 -208 R180
WINDOW 0 36 76 Left 2
WINDOW 3 36 40 Left 2
SYMATTR InstName R3
SYMATTR Value 1k
SYMBOL res -144 -208 R180
WINDOW 0 36 76 Left 2
WINDOW 3 36 40 Left 2
SYMATTR InstName R4
SYMATTR Value 220
TEXT -610 -144 Left 2 !.op
