Version 4
SHEET 1 880 680
WIRE 16 80 -176 80
WIRE 32 80 16 80
WIRE -176 112 -176 80
WIRE 16 112 16 80
WIRE -176 224 -176 192
WIRE 16 224 16 176
WIRE 16 224 -176 224
WIRE -176 240 -176 224
FLAG -176 240 0
FLAG 32 80 VD1
SYMBOL voltage -176 96 R0
WINDOW 123 0 0 Left 0
WINDOW 39 0 0 Left 0
SYMATTR InstName V1
SYMATTR Value 1
SYMBOL diode 0 112 R0
SYMATTR InstName D1
SYMATTR Value 1N4007
TEXT -210 264 Left 2 !.dc V1 0 0.9 50mV
TEXT -200 296 Left 2 !.temp 20 40 60 80 100 120
