Version 4
SHEET 1 880 680
WIRE 336 16 320 16
WIRE 448 16 416 16
WIRE 208 80 192 80
WIRE 496 96 480 96
WIRE 208 128 208 80
WIRE 224 128 208 128
WIRE 320 128 320 16
WIRE 320 128 304 128
WIRE 352 128 320 128
WIRE 448 144 448 16
WIRE 448 144 416 144
WIRE 480 144 480 96
WIRE 480 144 448 144
WIRE 560 144 480 144
WIRE 352 160 320 160
WIRE 480 176 480 144
WIRE 560 176 560 144
WIRE 208 192 208 128
WIRE 320 208 320 160
WIRE 208 320 208 272
WIRE 480 320 480 256
WIRE 560 320 560 240
FLAG -32 256 0
FLAG 64 256 0
FLAG 208 320 0
FLAG 320 208 0
FLAG -32 176 V+
FLAG 384 112 V+
FLAG 64 176 V-
FLAG 384 176 V-
FLAG 480 320 0
FLAG 560 320 0
FLAG 496 96 sal
IOPIN 496 96 Out
FLAG 192 80 ent
IOPIN 192 80 In
SYMBOL Misc\\battery -32 160 R0
SYMATTR InstName V1
SYMATTR Value 15V
SYMBOL Misc\\battery 64 160 R0
SYMATTR InstName V2
SYMATTR Value -15V
SYMBOL voltage 208 176 R0
WINDOW 123 24 152 Left 2
WINDOW 39 24 124 Left 2
SYMATTR InstName V3
SYMATTR Value SINE(0 1.5V 1kHz)
SYMATTR SpiceLine Rser=50
SYMBOL Mis_Componentes\\uA741 384 144 R0
SYMATTR InstName U1
SYMBOL res 432 0 R90
WINDOW 0 0 56 VBottom 2
WINDOW 3 32 56 VTop 2
SYMATTR InstName R1
SYMATTR Value 10k
SYMBOL res 320 112 R90
WINDOW 0 0 56 VBottom 2
WINDOW 3 32 56 VTop 2
SYMATTR InstName R2
SYMATTR Value 1k
SYMBOL res 464 160 R0
SYMATTR InstName RL
SYMATTR Value 10k
SYMBOL cap 544 176 R0
SYMATTR InstName C1
SYMATTR Value 100p
TEXT -8 312 Left 2 !.TEMP 25
TEXT -66 344 Left 2 !;tran 5u
TEXT -80 32 Left 2 !.ac dec 10 100Hz 2MEGHz
