Version 4
SHEET 1 944 680
WIRE 304 80 288 80
WIRE 496 80 480 80
WIRE 688 80 672 80
WIRE 128 176 32 176
WIRE 288 176 288 80
WIRE 288 176 256 176
WIRE 320 176 288 176
WIRE 480 176 480 80
WIRE 480 176 448 176
WIRE 512 176 480 176
WIRE 672 176 672 80
WIRE 672 176 640 176
WIRE 704 176 672 176
WIRE 32 208 32 176
WIRE 704 208 704 176
WIRE 192 240 192 208
WIRE 384 240 384 208
WIRE 576 240 576 208
WIRE 576 336 576 320
WIRE 704 336 704 288
WIRE 704 336 576 336
WIRE 32 352 32 288
WIRE 192 352 192 320
WIRE 384 352 384 320
WIRE 576 352 576 336
FLAG 32 352 0
FLAG 192 352 0
FLAG 384 352 0
FLAG 576 352 0
FLAG 304 80 A1
IOPIN 304 80 Out
FLAG 496 80 A2
IOPIN 496 80 Out
FLAG 688 80 A3
IOPIN 688 80 Out
SYMBOL voltage 192 224 R0
WINDOW 3 -65 163 Left 0
WINDOW 123 0 0 Left 0
WINDOW 39 0 0 Left 0
SYMATTR InstName V2
SYMATTR Value SINE(0 3.183V 1kHz 0 0 -0.36)
SYMBOL Misc\\battery 32 192 R0
SYMATTR InstName V1
SYMATTR Value 2.505 V
SYMBOL Mis_Componentes\\E7-sumador-analogico 192 176 R0
SYMATTR InstName X1
SYMBOL Mis_Componentes\\E7-sumador-analogico 384 176 R0
SYMATTR InstName X2
SYMBOL Mis_Componentes\\E7-sumador-analogico 576 176 R0
SYMATTR InstName X3
SYMBOL voltage 384 224 R0
WINDOW 3 -63 163 Left 0
WINDOW 123 0 0 Left 0
WINDOW 39 0 0 Left 0
SYMATTR InstName V3
SYMATTR Value SINE(0 0.01V 2kHz 0 0 89.64)
SYMBOL voltage 576 224 R0
WINDOW 3 -60 160 Left 0
WINDOW 123 0 0 Left 0
WINDOW 39 0 0 Left 0
SYMATTR InstName V4
SYMATTR Value SINE(0 1.061 3kHz 0 0 -1.08)
SYMBOL res 688 192 R0
SYMATTR InstName R1
SYMATTR Value 100k
